Version 4
SHEET 1 1032 680
WIRE 512 -144 336 -144
WIRE 688 -144 592 -144
WIRE 336 -48 336 -144
WIRE 528 -48 336 -48
WIRE 688 -48 688 -144
WIRE 688 -48 592 -48
WIRE 240 80 96 80
WIRE 336 80 336 -48
WIRE 336 80 304 80
WIRE 368 80 336 80
WIRE 496 80 448 80
WIRE 688 80 688 -48
WIRE 688 80 576 80
WIRE 768 80 688 80
WIRE 976 80 768 80
WIRE 576 96 576 80
WIRE 496 112 496 80
WIRE 528 112 496 112
WIRE 768 112 768 80
WIRE 976 112 976 80
WIRE -128 128 -128 16
WIRE 96 128 96 80
WIRE 528 160 496 160
WIRE 496 224 496 160
WIRE -128 256 -128 208
WIRE 96 256 96 208
WIRE 576 256 576 176
WIRE 768 256 768 192
WIRE 976 256 976 176
FLAG -128 256 0
FLAG -128 16 VCM
FLAG 576 256 0
FLAG 496 224 VCM
FLAG 96 256 VCM
FLAG 768 256 0
FLAG 768 80 Vout
FLAG 96 80 Vin
FLAG 976 256 0
SYMBOL voltage 96 112 R0
WINDOW 3 24 152 Left 2
WINDOW 123 24 180 Left 2
WINDOW 39 0 0 Left 0
SYMATTR Value PULSE(0 400m 10n 1n 1n 250n 1u 5)
SYMATTR Value2 AC 1
SYMATTR InstName V1
SYMBOL voltage -128 112 R0
SYMATTR InstName Vcm
SYMATTR Value 900m
SYMBOL cap 304 64 R90
WINDOW 0 0 32 VBottom 2
WINDOW 3 32 32 VTop 2
SYMATTR InstName C1
SYMATTR Value 0.4p
SYMBOL cap 592 -64 R90
WINDOW 0 0 32 VBottom 2
WINDOW 3 32 32 VTop 2
SYMATTR InstName C2
SYMATTR Value 0.4p
SYMBOL res 464 64 R90
WINDOW 0 0 56 VBottom 2
WINDOW 3 32 56 VTop 2
SYMATTR InstName Rn1
SYMATTR Value 100
SYMBOL g2 576 192 M180
SYMATTR InstName Gm
SYMATTR Value 10m
SYMBOL res 752 96 R0
SYMATTR InstName Ro1
SYMATTR Value 10Meg
SYMBOL res 608 -160 R90
WINDOW 0 0 56 VBottom 2
WINDOW 3 32 56 VTop 2
SYMATTR InstName R3
SYMATTR Value 1G
SYMBOL cap 960 112 R0
SYMATTR InstName Cs
SYMATTR Value 10p
TEXT 88 -264 Left 2 !;ac dec 20 1 1G
TEXT 104 -192 Left 2 !;tran 2.5u
TEXT 584 -272 Left 2 !.noise V(vout) V1 dec 10 1 100Meg
