Version 4
SHEET 1 1544 1124
WIRE 1024 -208 960 -208
WIRE 1024 -192 1024 -208
WIRE 912 -176 912 -272
WIRE 960 -176 960 -208
WIRE 896 -128 832 -128
WIRE 1072 -128 976 -128
WIRE -80 -112 -176 -112
WIRE -176 -96 -176 -112
WIRE -80 -64 -80 -112
WIRE 224 -64 224 -128
WIRE -128 -48 -176 -48
WIRE 176 -48 144 -48
WIRE -176 -32 -176 -48
WIRE 144 -32 144 -48
WIRE -128 0 -208 0
WIRE 176 0 112 0
WIRE 832 16 832 -128
WIRE 912 16 832 16
WIRE 1072 16 1072 -128
WIRE 1072 16 976 16
WIRE -80 48 -80 16
WIRE 32 48 -80 48
WIRE 224 48 224 16
WIRE 224 48 32 48
WIRE 32 80 32 48
WIRE 736 96 688 96
WIRE 736 112 736 96
WIRE 640 144 640 64
WIRE 688 144 688 96
WIRE 1008 144 880 144
WIRE 880 176 880 144
WIRE 32 192 32 144
WIRE 448 192 32 192
WIRE 624 192 448 192
WIRE 832 192 832 16
WIRE 832 192 704 192
WIRE 1008 208 1008 144
WIRE 1072 208 1072 16
WIRE 1072 208 1008 208
WIRE 1168 208 1072 208
WIRE 1184 208 1168 208
WIRE 1008 224 1008 208
WIRE 32 240 32 192
WIRE 448 240 448 192
WIRE 400 256 320 256
WIRE 1168 256 1168 208
WIRE 400 304 352 304
WIRE 832 304 832 240
WIRE 880 304 880 256
WIRE 944 304 880 304
WIRE 1008 304 944 304
WIRE 944 336 944 304
WIRE 352 352 352 304
WIRE 32 368 32 304
WIRE 32 368 -80 368
WIRE 240 368 32 368
WIRE 1168 368 1168 320
WIRE -80 400 -80 368
WIRE 240 400 240 368
WIRE 448 400 448 320
WIRE -128 416 -160 416
WIRE 192 416 144 416
WIRE -160 432 -160 416
WIRE 144 432 144 416
WIRE -128 464 -208 464
WIRE 192 464 96 464
WIRE 240 512 240 480
WIRE -80 528 -80 480
WIRE 368 864 368 768
WIRE 592 864 592 768
WIRE 832 864 832 768
WIRE -784 880 -784 768
WIRE -256 880 -256 768
WIRE 368 976 368 944
WIRE 592 976 592 944
WIRE 832 976 832 944
WIRE -784 1040 -784 960
WIRE -256 1040 -256 960
FLAG 96 464 CLK2
FLAG 112 0 CLK2
FLAG -208 0 CLK1
FLAG -208 464 CLK1
FLAG -160 432 0
FLAG 144 432 0
FLAG 144 -32 0
FLAG -176 -32 0
FLAG -176 -96 0
FLAG 240 512 0
FLAG -80 528 VR
FLAG 224 -128 VR
FLAG -256 768 CLK1
FLAG -784 768 CLK2
FLAG -256 1040 0
FLAG -784 1040 0
FLAG 368 976 0
FLAG 592 976 0
FLAG 832 976 0
FLAG 832 768 VR
FLAG 592 768 VCM
FLAG 368 768 VDD
FLAG 1184 208 VOUT
FLAG 912 -272 CLK1
FLAG 1024 -192 0
FLAG 640 64 CLK2
FLAG 352 352 0
FLAG 320 256 CLK1
FLAG 448 400 VCM
FLAG 736 112 0
FLAG 944 336 0
FLAG 832 304 VCM
FLAG 1168 368 0
SYMBOL cap 16 80 R0
SYMATTR InstName C0-delta
SYMATTR Value 1.8p
SYMBOL cap 16 240 R0
SYMATTR InstName C0+delta
SYMATTR Value 2.2p
SYMBOL sw -80 -80 R0
SYMATTR InstName S1
SYMATTR Value myswitch
SYMBOL sw 224 -80 R0
SYMATTR InstName S2
SYMATTR Value myswitch
SYMBOL sw -80 384 R0
SYMATTR InstName S3
SYMATTR Value myswitch
SYMBOL sw 240 384 R0
SYMATTR InstName S4
SYMATTR Value myswitch
SYMBOL voltage -256 864 R0
WINDOW 123 0 0 Left 0
WINDOW 39 0 0 Left 0
SYMATTR InstName Clk1
SYMATTR Value PULSE(0 1.8 0 1n 1n 123n 250n)
SYMBOL voltage -784 864 R0
WINDOW 123 0 0 Left 0
WINDOW 39 0 0 Left 0
SYMATTR InstName Clk2
SYMATTR Value PULSE(0 1.8 126n 1n 1n 123n 250n)
SYMBOL voltage 592 848 R0
SYMATTR InstName Vcm
SYMATTR Value 900m
SYMBOL voltage 832 848 R0
SYMATTR InstName Vr
SYMATTR Value 400m
SYMBOL voltage 368 848 R0
SYMATTR InstName Vdd
SYMATTR Value 1.8
SYMBOL cap 976 0 R90
WINDOW 0 0 32 VBottom 2
WINDOW 3 32 32 VTop 2
SYMATTR InstName C1
SYMATTR Value 0.2p
SYMBOL sw 992 -128 R90
SYMATTR InstName S5
SYMATTR Value myswitchB
SYMBOL sw 448 336 M180
SYMATTR InstName S6
SYMATTR Value myswitchB
SYMBOL sw 720 192 R90
SYMATTR InstName S7
SYMATTR Value myswitchB
SYMBOL g2 880 272 M180
SYMATTR InstName Gm
SYMATTR Value 5m
SYMBOL res 992 208 R0
SYMATTR InstName Rout
SYMATTR Value 100Meg
SYMBOL cap 1152 256 R0
SYMATTR InstName Cs
SYMATTR Value 3p
TEXT -152 632 Left 2 !.model myswitch sw(Vt=0.9 Vh=0 Ron=0.5k Roff=10G)
TEXT -720 64 Left 2 !.tran 1u
TEXT -904 680 Left 2 ;faza de integrare pe clk2
TEXT -384 680 Left 2 ;faza de reset pe clk1
TEXT 1288 32 Left 2 !.lib 'log018_no1f.l' TT
TEXT 600 632 Left 2 !.model myswitchB sw(Vt=0.9 Vh=0 Ron=0.1k Roff=10G)
